gridcapa-core-valid-app/src/test/resources/testRobin/20230703_1230_F119.uct
##C 2007.05.01
Generated by FBPCM on 2023-07-01T19:16:12Z
   CGM original file was:'D2CF_UCTE.uct'.
   Critical Branch ID = 'INITIAL_RA_CB', from TSO='XX'.
   No Critical Outage.
   Complex Variant ID ='INITIAL_RA_CV', name='INITIAL_PST_TAPS_BE_13'.
   FRMs have not been applied to branch limits.
   Hubs net positions have not been modified.
##N
##ZKS
_BERIV5  Berivojce    0 0        7.04179 2.97300 0.00000 0.00000 
_BURI 5  Istogu       0 0        6.84425 2.62100 0.00000 0.00000 
_DECAN5  Decani       0 2 110.99 11.0933 3.41300 -30.210 5.09847 -1.0000 -35.000 5.00000 -10.000 
_DREN12  Drenasi      0 0        0.00000 0.00000 0.00000 0.00000 
_DREN122 DREN122      0 0        0.00000 0.00000 0.00000 0.00000 
_DREN22  Drenas 2     0 0        9.39373 4.29300 0.00000 0.00000 
_DREN222 DREN222      0 0        0.00000 0.00000 0.00000 0.00000 
_FERON2  Feronikl     0 0        1.50651 2.04900 0.00000 0.00000 
_FERZ15  Ferizaj 1    0 0        33.3337 10.3980 0.00000 0.00000 
_FERZ211 FERZ211      0 0        0.00000 0.00000 0.00000 0.00000 
_FERZ212 FERZ212      0 0        0.00000 0.00000 0.00000 0.00000 
_FERZ25  Ferizaj 2    0 0        0.00000 0.00000 0.00000 0.00000 
_FERZ252 FERI252      0 0        0.00000 0.00000 0.00000 0.00000 
_GJAK15  Gjakova 1    0 0        10.3015 3.96300 0.00000 0.00000 
_GJAK25  Gjakova 2    0 0        14.2222 3.50100 0.00000 0.00000 
_GJIL15  Gjilani 1    0 0        20.3448 6.44900 0.00000 0.00000 
_GJIL55  Gjilani 5    0 0        10.5525 2.73100 0.00000 0.00000 
_HUJMA5  HC Ujmani    0 0        0.00000 0.00000 0.00000 0.00000 
_ILIRI5  Ilirida      0 0        19.4371 5.61300 0.00000 0.00000 
_KITKA5  Kitka        0 2 110.99 0.00000 0.00000 -0.3000 2.31690 -0.3000 -35.000 10.0000 -16.000 
_KLINA5  Klina        0 0        10.3980 4.57900 0.00000 0.00000 
_LIPLJ5  Lipjan       0 0        38.8865 14.6110 0.00000 0.00000 
_PALAJ5  Palaj        0 0        10.1276 13.4670 0.00000 0.00000 
_PEJA15  Peja 1       0 0        19.6302 5.34900 0.00000 0.00000 
_PEJA25  Peja 2       0 0        15.6901 4.64500 0.00000 0.00000 
_PEJA311 Peja 3       0 0        0.00000 0.00000 0.00000 0.00000 
_PEJA312 PEJA312      0 0        0.00000 0.00000 0.00000 0.00000 
_PEJA35  Peja 3       0 0        0.00000 0.00000 0.00000 0.00000 
_PEJA352 PEJA352      0 0        0.00000 0.00000 0.00000 0.00000 
_PODUJ2  Podujeva     0 0        20.2483 5.76400 0.00000 0.00000 
_PRIS15  Prishtina 1  0 0        40.5668 10.0320 0.00000 0.00000 
_PRIS25  Prishtina 2  0 0        22.7012 1.87300 0.00000 0.00000 
_PRIS35  Prishtina 3  0 0        18.9735 3.06100 0.00000 0.00000 
_PRIS421 PRIS421      0 0        0.00000 0.00000 0.00000 0.00000 
_PRIS422 PRIS422      0 0        0.00000 0.00000 0.00000 0.00000 
_PRIS45  Prishtina 4  0 0        18.5003 2.21400 0.00000 0.00000 
_PRIS452 PRIS452      0 0        0.00000 0.00000 0.00000 0.00000 
_PRIS55  Prishtina 5  0 0        13.7201 3.85300 0.00000 0.00000 
_PRIS65  _PRIS65      0 0        11.1706 1.91700 0.00000 0.00000 
_PRIZ15  Prizreni 1   0 0        19.0508 12.5100 0.00000 0.00000 
_PRIZ221 Prizreni 2   0 0        0.00000 0.00000 0.00000 0.00000 
_PRIZ222 PRIZ222      0 0        0.00000 0.00000 0.00000 0.00000 
_PRIZ251 Prizreni 2   0 0        0.00000 0.00000 0.00000 0.00000 
_PRIZ252 PRIZ252      0 0        0.00000 0.00000 0.00000 0.00000 
_PRIZ35  Prizreni 3   0 0        18.2010 7.96700 0.00000 0.00000 
_RAHOV5  Rahovec      0 0        22.9329 8.75900 0.00000 0.00000 
_SELAC5  _SELAC5      0 2 110.99 0.00000 0.00000 -10.034 1.92376 -1.0000 -105.00 10.0000 -16.000 
_SHARR5  Sharri       0 0        10.6035 3.83100 0.00000 0.00000 
_SKEND5  Skenderaj    0 0        10.7071 3.36900 0.00000 0.00000 
_THERA5  Therande     0 0        16.4820 6.42700 0.00000 0.00000 
_TKOSA21 TCKosovaA    0 2 224.40 0.00000 0.00000 -249.69 183.228 -30.000 -300.00 60.0000 -180.00 
_TKOSA22 TCKosovaA    0 0        0.00000 0.00000 0.00000 0.00000 
_TKOSA51 TC Kosova A  0 0        30.2627 21.5410 0.00000 0.00000 
_TKOSA52 TCKosovaA5   0 0        0.00000 0.00000 0.00000 0.00000 
_TKOSB11 TCKosovaB    0 2 400.00 0.00000 0.00000 -245.26 59.7256 -50.000 -300.00 50.0000 -170.00 
_TKOSB12 TKOSB12      0 0        0.00000 0.00000 0.00000 0.00000 
_TKOSB21 TCKosovaB    0 0        1.68034 74.1850 0.00000 0.00000 
_TKOSB22 TKOSB22      0 0        0.00000 0.00000 0.00000 0.00000 
_TREPC5  Trepca       0 0        1.45735 -3.0990 0.00000 0.00000 
_VALAQ5  VALLAQ51     0 0        24.0681 5.17100 0.00000 0.00000 
_VITIA5  Vitia        0 0        15.4970 6.05300 0.00000 0.00000 
_VUSH15  Vushtrri 1   0 0        0.00000 0.00000 0.00000 0.00000 
_VUSH25  Vushtrri2    0 0        17.3125 5.28300 0.00000 0.00000 
##ZRS
JADA  5  JADA  5      0 0        9.93718 2.33860 0.00000 0.00000 
JALEKC5  JALEKC5      0 0        0.00000 0.00000 0.00000 0.00000 
JALEKD5  JALEKD5      0 0        4.70543 2.22272 0.00000 0.00000 
JALIBU5  JALIBU5      0 0        7.80027 4.42438 0.00000 0.00000 
JAPATI5  JAPATI5      0 0        11.6530 2.35967 0.00000 0.00000 
JARAND5  JARAND5      0 0        24.7798 7.80586 0.00000 0.00000 
JARILJ5  JARILJ5      0 0        9.58980 4.82468 0.00000 0.00000 
JBAJMO5  JBAJMO5      0 0        5.07386 0.73740 0.00000 0.00000 
JBBAST21 JBBAST21     0 0        9.21084 3.81339 0.00000 0.00000 
JBBAST22 JBBAST22     0 0        0.00000 0.00000 0.00000 0.00000 
JBCRKV5  JBCRKV5      0 0        5.48440 0.71633 0.00000 0.00000 
JBECEJ51 JBECEJ5      0 0        19.7585 5.72009 0.00000 0.00000 
JBECEJ52 JBECEJ52     0 0        0.00000 0.00000 0.00000 0.00000 
JBEGEJ5  JBEGEJ5      0 0        7.85290 2.73890 0.00000 0.00000 
JBFC  5  JBFC  5      0 0        15.6111 5.44620 0.00000 0.00000 
JBGD1 5  JBGD1 5      0 0        47.2016 3.79232 0.00000 0.00000 
JBGD105  JBGD105      0 0        31.2536 5.59367 0.00000 0.00000 
JBGD115  JBGD115      0 0        27.2640 2.05417 0.00000 0.00000 
JBGD125  JBGD125      0 0        17.4426 1.46426 0.00000 0.00000 
JBGD135  JBGD135      0 0        30.7062 2.22272 0.00000 0.00000 
JBGD145  JBGD145      0 0        24.1061 3.39202 0.00000 0.00000 
JBGD155  JBGD155      0 0        23.0534 3.75018 0.00000 0.00000 
JBGD165  JBGD165      0 0        22.3797 2.90745 0.00000 0.00000 
JBGD1721 JBGD1721     0 0        0.00000 0.00000 0.00000 0.00000 
JBGD1722 JBGD1722     0 0        0.00000 0.00000 0.00000 0.00000 
JBGD1723 JBGD1723     0 0        0.00000 0.00000 0.00000 0.00000 
JBGD1751 JBGD1751     0 0        74.1078 1.73815 0.00000 0.00000 
JBGD1752 JBGD1752     0 0        0.00000 0.00000 0.00000 0.00000 
JBGD185  JBGD185      0 0        13.6215 1.13770 0.00000 0.00000 
JBGD195  JBGD195      0 0        13.0320 0.31603 0.00000 0.00000 
JBGD2 51 JBGD2 51     0 0        22.3166 0.40030 0.00000 0.00000 
JBGD2 52 JBGD2 52     0 0        0.00000 0.00000 0.00000 0.00000 
JBGD2011 JBGD2011     0 0        0.00000 0.00000 0.00000 0.00000 
JBGD2012 JBGD2012     0 0        0.00000 0.00000 0.00000 0.00000 
JBGD2051 JBGD2051     0 0        0.00000 0.00000 0.00000 0.00000 
JBGD2052 JBGD2052     0 0        0.00000 0.00000 0.00000 0.00000 
JBGD215  JBGD215      0 0        0.40001 0.24229 0.00000 0.00000 
JBGD2251 JBGD2251     0 0        18.2848 5.23551 0.00000 0.00000 
JBGD2252 JBGD2252     0 0        0.00000 0.00000 0.00000 0.00000 
JBGD235  JBGD235      0 0        10.2635 0.28442 0.00000 0.00000 
JBGD275  JBGD275      0 0        29.3905 2.64409 0.00000 0.00000 
JBGD2851 JBGD2851     0 0        20.8638 2.49661 0.00000 0.00000 
JBGD3 21 JBGD3 21     0 0        0.00000 0.00000 0.00000 0.00000 
JBGD3 22 JBGD3 22     0 0        0.00000 0.00000 0.00000 0.00000 
JBGD3 51 JBGD3 51     0 0        0.00000 0.00000 0.00000 0.00000 
JBGD3 52 JBGD3 52     0 0        0.00000 0.00000 0.00000 0.00000 
JBGD325  JBGD325      0 0        6.35811 0.88487 0.00000 0.00000 
JBGD335  JBGD335      0 0        14.7899 1.09556 0.00000 0.00000 
JBGD355  JBGD355      0 0        13.8530 1.48533 0.00000 0.00000 
JBGD3651 JBGD365      0 0        22.7481 0.49511 0.00000 0.00000 
JBGD3652 JBGD3652     0 0        0.00000 0.00000 0.00000 0.00000 
JBGD385  JBGD385      0 0        11.8109 0.90594 0.00000 0.00000 
JBGD405  JBGD405      0 0        24.8639 1.83296 0.00000 0.00000 
JBGD415  JBGD415      0 0        10.7267 0.12641 0.00000 0.00000 
JBGD4551 JBGD4551     0 0        0.00000 0.00000 0.00000 0.00000 
JBGD4552 JBGD4552     0 0        0.00000 0.00000 0.00000 0.00000 
JBGD5 21 JBGD5 21     0 0        0.00000 0.00000 0.00000 0.00000 
JBGD5 22 JBGD5 22     0 0        0.00000 0.00000 0.00000 0.00000 
JBGD5 51 JBGD5 51     0 0        30.8116 0.00000 0.00000 0.00000 
JBGD5 52 JBGD5 52     0 0        36.5170 0.03160 0.00000 0.00000 
JBGD5 53 JBGD5 53     0 0        0.00000 0.00000 0.00000 0.00000 
JBGD5 54 JBGD5 54     0 0        2.56851 1.16930 0.00000 0.00000 
JBGD6 51 JBGD6 51     0 0        9.56875 0.00000 0.00000 0.00000 
JBGD6 52 JBGD6 52     0 0        19.1901 1.08503 0.00000 0.00000 
JBGD7 5  JBGD7 5      0 0        41.4751 1.86456 0.00000 0.00000 
JBGD8 11 JBGD8 11     0 0        0.00000 0.00000 0.00000 0.00000 
JBGD8 12 JBGD8 12     0 0        0.00000 0.00000 0.00000 0.00000 
JBGD8 21 JBGD8 21     0 0        0.00000 0.00000 0.00000 0.00000 
JBGD8 22 JBGD8 22     0 0        0.00000 0.00000 0.00000 0.00000 
JBGD9 51 JBGD9 51     0 0        72.1498 7.73212 0.00000 0.00000 
JBGD9 52 JBGD9 52     0 0        0.00000 0.00000 0.00000 0.00000 
JBISTR21 JBISTR21     0 0        0.00000 0.00000 0.00000 0.00000 
JBISTR22 JBISTR22     0 0        0.00000 0.00000 0.00000 0.00000 
JBISTR51 JBISTR51     0 0        0.00000 0.00000 0.00000 0.00000 
JBISTR52 JBISTR52     0 0        0.00000 0.00000 0.00000 0.00000 
JBOGAT5  JBOGAT5      0 0        8.70557 3.61324 0.00000 0.00000 
JBOR 21  JBOR 21      0 0        0.00000 0.00000 0.00000 0.00000 
JBOR1 51 JBOR1 51     0 0        7.67395 2.53875 0.00000 0.00000 
JBOR1 52 JBOR1 52     0 0        9.64244 1.96990 0.00000 0.00000 
JBOR2 51 JBOR2 51     0 0        0.00000 0.00000 0.00000 0.00000 
JBOR2 52 JBOR2 52     0 0        0.00000 0.00000 0.00000 0.00000 
JBOR3 5  JBOR3 5      0 0        48.9069 18.9827 0.00000 0.00000 
JBOR4 51 JBOR4 51     0 0        0.00000 0.00000 0.00000 0.00000 
JBOR4 52 JBOR4 52     0 0        0.00000 0.00000 0.00000 0.00000 
JBOSIL5  JBOSIL5      0 0        0.53686 0.34763 0.00000 0.00000 
JBPOLJ5  JBPOLJ5      0 0        0.00000 0.00000 0.00000 0.00000 
JBTOP15  JBTOP15      0 0        4.38962 2.30700 0.00000 0.00000 
JBTOP25  JBTOP25      0 0        16.3058 3.66591 0.00000 0.00000 
JBUJAN5  JBUJAN5      0 0        10.6529 2.54928 0.00000 0.00000 
JCACA15  JCACA15      0 0        12.5373 9.43867 0.00000 0.00000 
JCACA251 JCACA25      0 0        24.5377 6.28893 0.00000 0.00000 
JCACA252 JCACA252     0 0        0.00000 0.00000 0.00000 0.00000 
JCACA321 JCACAK2      0 0        0.00000 0.00000 0.00000 0.00000 
JCACA322 JCACA322     0 0        0.00000 0.00000 0.00000 0.00000 
JCACA351 JCACA351     0 0        0.00000 0.00000 0.00000 0.00000 
JCACA352 JCACA352     0 0        0.00000 0.00000 0.00000 0.00000 
JCAJET5  JESUSI5      0 0        13.3057 4.50865 0.00000 0.00000 
JCELAR5  JCELAR5      0 0        4.32647 0.88487 0.00000 0.00000 
JCEMEN5  JCEMEN5      0 0        10.2951 3.10760 0.00000 0.00000 
JCICEV5  JCICEV5      0 0        0.00000 0.00000 0.00000 0.00000 
JCRVEN5  JCRVEN5      0 0        7.15814 1.92776 0.00000 0.00000 
JCSUPK5  JCSUPK5      0 0        0.00000 0.00000 0.00000 0.00000 
JCUPRI5  JCUPRI5      0 0        0.00000 0.00000 0.00000 0.00000 
JCVATE5  JCVATE5      0 0        0.00000 0.00000 0.00000 0.00000 
JCVBEL5  JCVBEL5      0 0        0.00000 0.00000 0.00000 0.00000 
JCVLIS5  JCVLIS5      0 0        0.00000 0.00000 0.00000 0.00000 
JCVLOZ5  JCVLOZ5      0 0        0.00000 0.00000 0.00000 0.00000 
JCVSTR5  JCVSTR5      0 0        0.00000 0.00000 0.00000 0.00000 
JDEBEL5  JDEBEL5      0 0        9.10558 3.66591 0.00000 0.00000 
JDIMIT5  JDIMIT5      0 0        3.20011 1.04289 0.00000 0.00000 
JEBRGU5  JEBRGU5      0 0        2.16849 0.90594 0.00000 0.00000 
JEBROD5  JEBROD5      0 0        0.00000 0.00000 0.00000 0.00000 
JEDJUN5  JEDJUN5      0 0        0.62107 0.09481 0.00000 0.00000 
JEGRDE5  JEGRDE5      0 0        0.00000 0.00000 0.00000 0.00000 
JEKRAL5  JEKRAL5      0 0        0.27369 0.08427 0.00000 0.00000 
JEMARK5  JEMARK5      0 0        0.44212 0.36870 0.00000 0.00000 
JEMART5  JEMART5      0 0        1.35795 0.82167 0.00000 0.00000 
JERESN5  JERESN5      0 0        1.32636 0.99022 0.00000 0.00000 
JERIST5  JERIST5      0 0        1.84217 1.04289 0.00000 0.00000 
JESLOV5  JESLOV5      0 0        1.17898 0.25282 0.00000 0.00000 
JFAS  5  JFAS  5      0 0        2.25270 0.00000 0.00000 0.00000 
JFUTOG5  JFUTOG5      0 0        24.9903 8.26937 0.00000 0.00000 
JGMILA5  JGMILA5      0 0        23.0008 7.87960 0.00000 0.00000 
JGRADI5  JGRADI5      0 0        9.11610 1.67494 0.00000 0.00000 
JGUCA 5  JGUCA 5      0 0        13.6215 6.04665 0.00000 0.00000 
JHBBAS21 JHBBAS21     0 2 237.00 0.00000 0.00000 -211.73 5.30815 -80.000 -212.00 0.00000 -50.000 
JHBBAS22 JHBBAS22     0 2 237.00 0.00000 0.00000 -127.84 -8.1958 -60.000 -212.00 0.00000 -50.000 
JHBIST2  JHBIST2      0 2 231.48 0.00000 0.00000 -84.896 85.4862 0.00000 -104.00 0.00000 -40.000 
JHDJE111 JHDJE111     0 2 411.00 0.49476 0.06320 -824.53 161.938 0.00000 -1000.0 200.000 -436.00 
JHDJE112 JHDJE112     0 0        0.00000 0.00000 0.00000 0.00000 
JHDJE25  JHDJE25      0 2 115.84 57.8966 0.00000 -199.75 -35.692 0.00000 -216.00 0.00000 -40.000 
JHIP  21 JHIP  2      0 0        19.5270 0.96915 0.00000 0.00000 
JHIP  22 JHIP  22     0 0        0.00000 0.00000 0.00000 0.00000 
JHKBRO5  JHKBRO5      0 2 113.34 0.00000 0.00000 -19.975 7.33724 -2.0000 -20.000 0.00000 -8.0000 
JHPIRO5  JHPIRO5      0 2 112.76 0.00000 0.00000 0.00000 -8.4208 0.00000 -40.000 0.00000 -12.000 
JHPOTP51 JHPOTP51     0 2 114.46 -1.5040 1.55239 -50.937 1.24223 -5.0000 -54.000 0.00000 -21.000 
JHPOTP52 JHPOTP52     0 0        0.00000 0.00000 0.00000 0.00000 
JHUVAC5  JHUVAC5      0 2 113.56 0.00000 0.00000 -31.960 -1.7409 -25.000 -36.000 0.00000 -15.000 
JHVRL15  JHVRL15      0 2 117.56 0.00000 0.00000 -39.950 -0.0374 0.00000 -56.000 0.00000 -12.000 
JHVRL25  JHVRL25      0 2 117.48 0.00000 0.00000 -19.975 -0.1889 0.00000 -28.000 0.00000 -14.000 
JHVRL35  JHVRL35      0 2 117.00 0.00000 0.00000 -39.950 33.3436 0.00000 -46.000 0.00000 -28.000 
JHZVOR51 JHZVOR51     0 2 119.17 2.91589 0.77953 -119.85 40.9475 -10.000 -124.00 0.00000 -28.000 
JHZVOR52 JHZVOR52     0 0        0.00000 0.00000 0.00000 0.00000 
JINDJ251 JINDJ251     0 0        0.00000 0.00000 0.00000 0.00000 
JINDJ252 JINDJ252     0 0        9.10558 1.52746 0.00000 0.00000 
JINDJI5  JINDJI5      0 0        19.5901 4.61399 0.00000 0.00000 
JIVANJ5  JIVANJ5      0 0        12.1373 3.36042 0.00000 0.00000 
JJAGO151 JJAGO151     0 0        12.3583 4.44544 0.00000 0.00000 
JJAGO152 JJAGO152     0 0        0.00000 0.00000 0.00000 0.00000 
JJAGO25  JJAGO25      0 0        15.9057 4.27690 0.00000 0.00000 
JJAGO35  JJAGO35      0 0        10.8425 3.80286 0.00000 0.00000 
JJAGO411 JJAGO411     0 0        0.00000 0.00000 0.00000 0.00000 
JJAGO412 JJAGO412     0 0        0.00000 0.00000 0.00000 0.00000 
JJAGO451 JJAGO451     0 0        0.00000 0.00000 0.00000 0.00000 
JJAGO452 JJAGO452     0 0        0.00000 0.00000 0.00000 0.00000 
JKACAR5  JKACAR5      0 0        10.3476 2.99172 0.00000 0.00000 
JKANJI5  JKANJI5      0 0        14.5689 4.07675 0.00000 0.00000 
JKIKI15  JKIKI15      0 0        12.2636 2.89691 0.00000 0.00000 
JKIKI251 JKIKI251     0 0        5.38965 2.10685 0.00000 0.00000 
JKIKI252 JKIKI252     0 0        0.01052 0.02107 0.00000 0.00000 
JKMART5  JKMART5      0 0        0.00000 0.00000 0.00000 0.00000 
JKNIC 5  JKNIC 5      0 0        4.96859 1.66441 0.00000 0.00000 
JKNJAZ5  JKNJAZ5      0 0        10.2424 2.38074 0.00000 0.00000 
JKOLUB51 JKOLUB51     0 0        1.08425 0.95861 0.00000 0.00000 
JKOLUB52 JKOLUB52     0 0        8.22133 2.93905 0.00000 0.00000 
JKOPAO51 JKOPAO51     0 0        -5.0133 -1.5713 0.00000 0.00000 
JKOPAO52 JKOPAO52     0 0        0.00000 0.00000 0.00000 0.00000 
JKOSJE5  JKOSJE5      0 0        4.73700 2.50715 0.00000 0.00000 
JKOVIN5  JKOVIN5      0 0        12.0003 2.15952 0.00000 0.00000 
JKRAG15  JKRAG15      0 0        31.1062 5.79382 0.00000 0.00000 
JKRAG211 JKRAG21      0 0        0.00000 0.00000 0.00000 0.00000 
JKRAG212 JKRAG212     0 0        0.00000 0.00000 0.00000 0.00000 
JKRAG251 JKRAG251     0 0        0.00000 0.00000 0.00000 0.00000 
JKRAG252 JKRAG252     0 0        0.00000 0.00000 0.00000 0.00000 
JKRAG35  JKRAG35      0 0        15.6320 2.01204 0.00000 0.00000 
JKRAG55  JKRAG55      0 0        17.2953 3.12867 0.00000 0.00000 
JKRAG85  JKRAG85      0 0        6.85287 1.30624 0.00000 0.00000 
JKRAL151 JKRAL15      0 0        7.01076 3.42362 0.00000 0.00000 
JKRAL152 JKRAL152     0 0        0.00000 0.00000 0.00000 0.00000 
JKRAL25  JKRAL25      0 0        16.3479 5.35139 0.00000 0.00000 
JKRAL311 JKRAL311     0 0        0.00000 0.00000 0.00000 0.00000 
JKRAL321 JKRALJ2      0 0        0.00000 0.00000 0.00000 0.00000 
JKRAL322 JKRAL322     0 0        0.00000 0.00000 0.00000 0.00000 
JKRAL351 JKRAL351     0 0        0.00000 0.00000 0.00000 0.00000 
JKRAL352 JKRAL352     0 0        0.00000 0.00000 0.00000 0.00000 
JKRAL55  JKRAL55      0 0        16.0952 1.83296 0.00000 0.00000 
JKRAL65  JKRAL65      0 0        4.35804 0.62152 0.00000 0.00000 
JKRIV15  JVKRIV5      0 0        40.5908 10.0707 0.00000 0.00000 
JKRNJE51 JKRNJE51     0 0        13.5688 0.01053 0.00000 0.00000 
JKRONO5  JKRONO5      0 0        1.36847 0.00000 0.00000 0.00000 
JKRUPA5  JKRUPA5      0 0        6.62128 3.45523 0.00000 0.00000 
JKRUS121 JKRUS121     0 0        0.00000 0.00000 0.00000 0.00000 
JKRUS122 JKRUS122     0 0        0.00000 0.00000 0.00000 0.00000 
JKRUS151 JKRUS151     0 0        6.83181 2.88638 0.00000 0.00000 
JKRUS152 JKRUS152     0 0        0.00000 0.00000 0.00000 0.00000 
JKRUS25  JKRUS25      0 0        28.3377 6.39428 0.00000 0.00000 
JKRUS35  JKRUS35      0 0        5.88441 0.00000 0.00000 0.00000 
JKRUS45  JKRUS45      0 0        18.5480 4.59292 0.00000 0.00000 
JKSTA 51 JKSTA 5      0 0        10.9266 5.30000 0.00000 0.00000 
JKSTA 52 JKSTA 52     0 0        0.00000 0.00000 0.00000 0.00000 
JKULA 5  JKULA 5      0 0        9.72665 1.36945 0.00000 0.00000 
JKURSU5  JKURSU5      0 0        8.84241 3.19187 0.00000 0.00000 
JLAPOV5  JLAPOV5      0 0        8.49503 3.47629 0.00000 0.00000 
JLAZAR5  JLAZAR5      0 0        12.4110 2.99172 0.00000 0.00000 
JLEBAN5  JLEBAN5      0 0        19.3164 7.22648 0.00000 0.00000 
JLESK15  JLESK15      0 0        14.1583 5.27765 0.00000 0.00000 
JLESK211 JLESK211     0 0        0.00000 0.00000 0.00000 0.00000 
JLESK212 JLESK212     0 0        0.00000 0.00000 0.00000 0.00000 
JLESK251 JLESK251     0 0        0.00000 0.00000 0.00000 0.00000 
JLESK252 JLESK252     0 0        0.00000 0.00000 0.00000 0.00000 
JLESK45  JLESK45      0 0        18.2953 3.05493 0.00000 0.00000 
JLESK65  JLESK65      0 0        10.9056 1.73815 0.00000 0.00000 
JLESNI5  JLESNI5      0 0        9.13716 3.68698 0.00000 0.00000 
JLJIG 5  JLJIG 5      0 0        10.2635 5.28818 0.00000 0.00000 
JLJUBO5  JLJUBO5      0 0        4.42121 2.08578 0.00000 0.00000 
JLOZN251 JLOZN251     0 0        9.28453 1.71708 0.00000 0.00000 
JLOZNI5  JLOZNI5      0 0        28.0851 7.26862 0.00000 0.00000 
JMACMI5  JMACMI5      0 0        3.45275 1.66441 0.00000 0.00000 
JMAJD15  JMAJD15      0 0        47.8122 14.9059 0.00000 0.00000 
JMAJD251 JMAJD251     0 0        0.00000 0.00000 0.00000 0.00000 
JMAJD252 JMAJD252     0 0        4.12646 0.25282 0.00000 0.00000 
JMAJD35  JMAJD35      0 0        3.07379 4.00301 0.00000 0.00000 
JMLADE5  JMLADE5      0 0        22.2850 3.98194 0.00000 0.00000 
JMOSNA51 JMOSNA51     0 0        1.48427 0.02107 0.00000 0.00000 
JNBECE51 JNBECE5      0 0        11.2003 4.27690 0.00000 0.00000 
JNBECE52 JNBECE52     0 0        0.00000 0.00000 0.00000 0.00000 
JNCRNJ5  JNCRNJ5      0 0        3.10537 0.90594 0.00000 0.00000 
JNEGOT5  JNEGOT5      0 0        11.1477 0.04214 0.00000 0.00000 
JNERES5  JNERES5      0 0        6.09495 1.25357 0.00000 0.00000 
JNIS1 51 JNIS1 51     0 0        22.9165 6.24680 0.00000 0.00000 
JNIS1 52 JNIS1 52     0 0        0.00000 0.00000 0.00000 0.00000 
JNIS105  JNIS105      0 0        16.4427 2.48608 0.00000 0.00000 
JNIS1351 JNIS1351     0 0        7.04235 1.06396 0.00000 0.00000 
JNIS1352 JNIS1352     0 0        7.77921 0.62152 0.00000 0.00000 
JNIS155  JNIS155      0 0        10.3898 3.86606 0.00000 0.00000 
JNIS2 11 JNIS2 11     0 0        0.00000 0.00000 0.00000 0.00000 
JNIS2 12 JNIS2 12     0 0        0.00000 0.00000 0.00000 0.00000 
JNIS2 2  JNIS2 2      0 0        0.00000 0.00000 0.00000 0.00000 
JNIS2 51 JNIS2 51     0 0        0.00000 0.00000 0.00000 0.00000 
JNIS2 52 JNIS2 52     0 0        0.00000 0.00000 0.00000 0.00000 
JNIS3 51 JNIS3 51     0 0        0.00000 0.00000 0.00000 0.00000 
JNIS3 52 JNIS3 52     0 0        20.5691 2.46501 0.00000 0.00000 
JNIS5 5  JNIS5 5      0 0        8.88452 2.53875 0.00000 0.00000 
JNIS8 5  JNIS8 5      0 0        8.82135 1.73815 0.00000 0.00000 
JNPAZ15  JNPAZ15      0 0        14.6741 4.24529 0.00000 0.00000 
JNPAZ25  JNPAZ25      0 0        13.5688 0.00000 0.00000 0.00000 
JNPAZO5  JNPAZO5      0 0        23.6429 6.18359 0.00000 0.00000 
JNPOPO5  JNPOPO5      0 0        9.25295 0.23175 0.00000 0.00000 
JNSAD151 JNSAD151     0 0        13.2426 4.09781 0.00000 0.00000 
JNSAD152 JNSAD152     0 0        0.00000 0.00000 0.00000 0.00000 
JNSAD251 JNSAD251     0 0        25.6640 6.28893 0.00000 0.00000 
JNSAD252 JNSAD252     0 0        0.00000 0.00000 0.00000 0.00000 
JNSAD311 JNSAD311     0 0        0.00000 0.00000 0.00000 0.00000 
JNSAD312 JNSAD312     0 0        0.00000 0.00000 0.00000 0.00000 
JNSAD321 JNSAD321     0 0        0.00000 0.00000 0.00000 0.00000 
JNSAD322 JNSAD322     0 0        0.00000 0.00000 0.00000 0.00000 
JNSAD351 JNSAD351     0 0        0.00000 0.00000 0.00000 0.00000 
JNSAD352 JNSAD352     0 0        0.00000 0.00000 0.00000 0.00000 
JNSAD451 JNSAD45      0 0        32.7800 3.90820 0.00000 0.00000 
JNSAD452 JNSAD452     0 0        0.00000 0.00000 0.00000 0.00000 
JNSAD551 JNSAD551     0 0        27.3062 4.03461 0.00000 0.00000 
JNSAD552 JNSAD552     0 0        0.00000 0.00000 0.00000 0.00000 
JNSAD65  JNSAD65      0 0        11.5583 0.42137 0.00000 0.00000 
JNSAD751 JNSAD75      0 0        34.6222 4.51918 0.00000 0.00000 
JNSAD752 JNSAD752     0 0        0.00000 0.00000 0.00000 0.00000 
JNSAD95  JNSAD95      0 0        17.6637 1.68548 0.00000 0.00000 
JNVARO5  JNVARO5      0 0        5.26334 2.21219 0.00000 0.00000 
JOBREN11 JOBREN11     0 0        0.00000 0.00000 0.00000 0.00000 
JOBREN12 JOBREN12     0 0        0.00000 0.00000 0.00000 0.00000 
JOBREN13 JOBREN13     0 0        0.00000 0.00000 0.00000 0.00000 
JOBREN21 JOBREN21     0 0        0.00000 0.00000 0.00000 0.00000 
JOBREN22 JOBREN22     0 0        0.00000 0.00000 0.00000 0.00000 
JOBREN23 JOBREN23     0 0        0.00000 0.00000 0.00000 0.00000 
JODZAC5  JODZAC5      0 0        18.5059 4.15049 0.00000 0.00000 
JOSECI5  JOSECI5      0 0        4.76859 1.55907 0.00000 0.00000 
JPALA15  JPALA15      0 0        7.21078 2.08578 0.00000 0.00000 
JPALA25  JPALA25      0 0        18.3374 4.56132 0.00000 0.00000 
JPALIC5  JPALIC5      0 0        6.21074 0.73740 0.00000 0.00000 
JPANC151 JPANC152     0 0        0.00000 0.00000 0.00000 0.00000 
JPANC152 JPANC151     0 0        0.37896 0.00000 0.00000 0.00000 
JPANC211 JPANC211     0 0        0.00000 0.00000 0.00000 0.00000 
JPANC212 JPANC212     0 0        0.00000 0.00000 0.00000 0.00000 
JPANC22  JPANC22      0 0        0.00000 0.00000 0.00000 0.00000 
JPANC251 JPANC251     0 0        0.00000 0.00000 0.00000 0.00000 
JPANC252 JPANC252     0 0        0.00000 0.00000 0.00000 0.00000 
JPANC35  JPANC35      0 0        18.0216 1.34838 0.00000 0.00000 
JPANC451 JPANC45      0 0        20.2427 2.66516 0.00000 0.00000 
JPANC452 JPANC452     0 0        0.00000 0.00000 0.00000 0.00000 
JPARA151 JPARA151     0 0        16.9584 5.01429 0.00000 0.00000 
JPARA152 JPARA152     0 0        0.00000 0.00000 0.00000 0.00000 
JPARA35  JPARA35      0 0        2.22113 0.13695 0.00000 0.00000 
JPAZOV5  JPAZOV5      0 0        26.0535 7.78479 0.00000 0.00000 
JPECIN5  JPECIN5      0 0        13.6636 3.49736 0.00000 0.00000 
JPETRO51 JPETRO51     0 0        17.1480 4.47705 0.00000 0.00000 
JPETRO52 JPETRO52     0 0        0.00000 0.00000 0.00000 0.00000 
JPIRO15  JPIRO15      0 0        20.8112 6.97366 0.00000 0.00000 
JPIRO251 JPIRO25      0 0        13.2635 1.85402 0.00000 0.00000 
JPIRO252 JPIRO252     0 0        0.00000 0.00000 0.00000 0.00000 
JPLISI5  JPLISI5      0 0        0.00000 0.00000 0.00000 0.00000 
JPOZAR51 JPOZAR51     0 0        0.00000 0.00000 0.00000 0.00000 
JPOZAR52 JPOZAR52     0 0        22.9586 0.00000 0.00000 0.00000 
JPOZEG21 JPOZEG2      0 0        0.00000 0.00000 0.00000 0.00000 
JPOZEG22 JPOZEG22     0 0        0.00000 0.00000 0.00000 0.00000 
JPOZEG51 JPOZEG51     0 0        13.6215 7.58464 0.00000 0.00000 
JPOZEG52 JPOZEG52     0 0        0.00000 0.00000 0.00000 0.00000 
JPRAHO5  JPRAHO5      0 0        3.97909 0.02107 0.00000 0.00000 
JPRESE5  JPRESE5      0 0        9.47401 2.15952 0.00000 0.00000 
JPRIJE5  JPRIJE5      0 0        10.1477 3.96087 0.00000 0.00000 
JPROKU5  JPROKU5      0 0        16.9584 2.77050 0.00000 0.00000 
JPRPAL51 JPRPAL51     0 0        0.00000 0.00000 0.00000 0.00000 
JPRPAL52 JPRPAL52     0 0        0.00000 0.00000 0.00000 0.00000 
JPRPBO51 JPRPBO51     0 0        0.00000 0.00000 0.00000 0.00000 
JPRPBO52 JPRPBO52     0 0        0.00000 0.00000 0.00000 0.00000 
JPRPCI11 JPRPCI11     0 0        0.00000 0.00000 0.00000 0.00000 
JPRPCI12 JPRPCI12     0 0        0.00000 0.00000 0.00000 0.00000 
JPRPKO21 JPRPKO21     0 0        0.00000 0.00000 0.00000 0.00000 
JPRPKO22 JPRPKO22     0 0        0.00000 0.00000 0.00000 0.00000 
JPRPKS51 JPRPKS51     0 0        0.00000 0.00000 0.00000 0.00000 
JPRPKS52 JPRPKS52     0 0        0.00000 0.00000 0.00000 0.00000 
JPRPPA21 JPRPPA21     0 0        0.00000 0.00000 0.00000 0.00000 
JPRPPA22 JPRPPA22     0 0        0.00000 0.00000 0.00000 0.00000 
JPRPVK51 JPRPVK51     0 0        30.6642 2.77050 0.00000 0.00000 
JPRPVK52 JPRPVK52     0 0        0.00000 0.00000 0.00000 0.00000 
JRANIS21 JRANIS21     0 0        30.6642 7.14221 0.00000 0.00000 
JRANIS22 JRANIS22     0 0        0.00000 0.00000 0.00000 0.00000 
JRASKA5  JRASKA5      0 0        -1.6836 3.14264 0.00000 0.00000 
JRHBBA21 JRHBBA21     0 2 236.38 0.33685 0.05267 0.00000 11.3037 300.000 -300.00 0.00000 -50.000 
JRHBBA22 JRHBBA22     0 2 220.00 0.00000 0.00000 0.00000 0.00000 300.000 -300.00 0.00000 -50.000 
JRPDRM11 JRPDRM11     0 0        0.00000 0.00000 0.00000 0.00000 
JRPDRM12 JRPDRM12     0 0        0.00000 0.00000 0.00000 0.00000 
JRPMLA11 JRPMLA11     0 0        0.00000 0.00000 0.00000 0.00000 
JRPMLA12 JRPMLA12     0 0        0.00000 0.00000 0.00000 0.00000 
JRSANC5  JRSANC5      0 0        22.8534 5.42513 0.00000 0.00000 
JRUDKO5  JRUDKO5      0 0        3.72645 0.00000 0.00000 0.00000 
JRUDN15  JRUDN15      0 0        2.82115 0.93755 0.00000 0.00000 
JRUDN25  JRUDN25      0 0        0.28422 0.14748 0.00000 0.00000 
JRUDN35  JRUDN35      0 0        10.3371 4.83521 0.00000 0.00000 
JRUDN45  JRUDN45      0 0        0.00000 0.00000 0.00000 0.00000 
JRUDN55  JRUDN55      0 0        0.00000 0.00000 0.00000 0.00000 
JRUMA15  JRUMA15      0 0        15.0321 2.47554 0.00000 0.00000 
JRUMA25  JRUMA25      0 0        15.4742 3.22347 0.00000 0.00000 
JSABA15  JSABA15      0 0        4.14752 0.00000 0.00000 0.00000 
JSABA25  JSABA25      0 0        29.1693 6.01504 0.00000 0.00000 
JSABA321 JSABA32      0 0        0.00000 0.00000 0.00000 0.00000 
JSABA322 JSABA322     0 0        0.00000 0.00000 0.00000 0.00000 
JSABA351 JSABA351     0 0        0.00000 0.00000 0.00000 0.00000 
JSABA352 JSABA352     0 0        0.00000 0.00000 0.00000 0.00000 
JSABA45  JSABA45      0 0        7.94764 1.96990 0.00000 0.00000 
JSABA55  JSABA55      0 0        14.0847 1.34838 0.00000 0.00000 
JSENT15  JSENT15      0 0        5.11596 0.85327 0.00000 0.00000 
JSENT25  JSENT25      0 0        9.47401 1.50639 0.00000 0.00000 
JSEVOJ51 JSEVOJ5      0 0        19.6322 7.60571 0.00000 0.00000 
JSEVOJ52 JSEVOJ52     0 0        0.00000 0.00000 0.00000 0.00000 
JSID  5  JSID  5      0 0        13.2215 2.10685 0.00000 0.00000 
JSIP  5  JSIP  5      0 0        4.99642 0.30000 0.00000 0.00000 
JSJENI5  JSJENI5      0 0        7.21078 3.39202 0.00000 0.00000 
JSMED151 JSMED151     0 0        0.00000 0.00000 0.00000 0.00000 
JSMED152 JSMED152     0 0        6.60023 1.52746 0.00000 0.00000 
JSMED251 JSMED251     0 0        20.2007 5.53047 0.00000 0.00000 
JSMED252 JSMED252     0 0        0.00000 0.00000 0.00000 0.00000 
JSMED311 JSMED311     0 0        0.00000 0.00000 0.00000 0.00000 
JSMED312 JSMED312     0 0        0.00000 0.00000 0.00000 0.00000 
JSMED32  JSMED32      0 0        0.00000 0.00000 0.00000 0.00000 
JSMED351 JSMED351     0 0        44.9910 15.1271 0.00000 0.00000 
JSMED352 JSMED352     0 0        63.2337 7.19488 0.00000 0.00000 
JSMED45  JSMED45      0 0        8.82135 3.22347 0.00000 0.00000 
JSMIT151 JSMIT15      0 0        10.6951 2.57035 0.00000 0.00000 
JSMIT152 JSMIT152     0 0        0.00000 0.00000 0.00000 0.00000 
JSMIT211 JSMIT211     0 0        0.00000 0.00000 0.00000 0.00000 
JSMIT212 JSMIT212     0 0        0.00000 0.00000 0.00000 0.00000 
JSMIT221 JSMIT221     0 0        0.00000 0.00000 0.00000 0.00000 
JSMIT222 JSMIT222     0 0        0.00000 0.00000 0.00000 0.00000 
JSMIT251 JSMIT251     0 0        0.00000 0.00000 0.00000 0.00000 
JSMIT252 JSMIT252     0 0        0.00000 0.00000 0.00000 0.00000 
JSMIT35  JSMIT35      0 0        16.4005 3.22347 0.00000 0.00000 
JSMPAL5  JSMPAL5      0 0        16.1690 4.08728 0.00000 0.00000 
JSOMB15  JSOMB15      0 0        15.2426 2.70730 0.00000 0.00000 
JSOMB25  JSOMB25      0 0        15.9795 3.22347 0.00000 0.00000 
JSOMB31  JSOMB31      0 0        0.00000 0.00000 0.00000 0.00000 
JSOMB351 JSOMB351     0 0        0.00000 0.00000 0.00000 0.00000 
JSOMB352 JSOMB352     0 0        0.00000 0.00000 0.00000 0.00000 
JSRBOB11 JSRBOB11     0 0        0.00000 0.00000 0.00000 0.00000 
JSRBOB12 JSRBOB12     0 0        0.00000 0.00000 0.00000 0.00000 
JSRBOB51 JSRBOB51     0 0        0.00000 0.00000 0.00000 0.00000 
JSRBOB52 JSRBOB52     0 0        4.86332 0.58992 0.00000 0.00000 
JSSTIL5  JSSTIL5      0 0        31.9589 6.33107 0.00000 0.00000 
JSTENJ5  JSTENJ5      0 0        0.00000 0.00000 0.00000 0.00000 
JSTRAG5  JSTRAG5      0 0        0.69476 0.00000 0.00000 0.00000 
JSUBO15  JSUBO15      0 0        24.4639 7.20541 0.00000 0.00000 
JSUBO25  JSUBO25      0 0        20.6849 2.49661 0.00000 0.00000 
JSUBO311 JSUBO311     0 0        0.00000 0.00000 0.00000 0.00000 
JSUBO312 JSUBO312     0 0        0.00000 0.00000 0.00000 0.00000 
JSUBO351 JSUBO351     0 0        0.00000 0.00000 0.00000 0.00000 
JSUBO352 JSUBO352     0 0        0.00000 0.00000 0.00000 0.00000 
JSUBO451 JSUBO45      0 0        11.1583 1.94883 0.00000 0.00000 
JSUBO452 JSUBO452     0 0        0.00000 0.00000 0.00000 0.00000 
JSVRLJ5  JSVRLJ5      0 0        4.72648 1.82242 0.00000 0.00000 
JTAMNV5  JTAMNV5      0 0        38.3487 32.1715 0.00000 0.00000 
JTAMNZ5  JTAMNZ5      0 0        15.1162 8.37471 0.00000 0.00000 
JTDRMN11 JTDRMN11     0 2 418.00 0.00000 0.00000 0.00000 -78.283 0.00000 -325.00 30.0000 -100.00 
JTDRMN12 JTDRMN12     0 2 418.27 0.00000 0.00000 -299.62 18.6280 -220.00 -325.00 30.0000 -100.00 
JTDRMN51 JTDRMN51     0 0        2.05270 0.00000 0.00000 0.00000 
JTEMER5  JTEMER5      0 0        12.6425 4.44544 0.00000 0.00000 
JTENTA11 JTENTA11     0 2 413.61 0.00000 0.00000 0.00000 -115.69 0.00000 -320.00 50.0000 -140.00 
JTENTA12 JTENTA12     0 2 413.61 0.00000 0.00000 0.00000 -115.69 0.00000 -320.00 50.0000 -140.00 
JTENTA2  JTENTA2      0 0        5.69494 0.00000 0.00000 0.00000 
JTENTA21 JTENTA21     0 2 236.00 0.00000 0.00000 0.00000 -19.651 0.00000 -190.00 50.0000 -140.00 
JTENTA22 JTENTA22     0 2 236.00 0.00000 0.00000 -110.38 -0.0007 -110.00 -190.00 50.0000 -140.00 
JTENTA23 JTENTA23     0 2 236.00 0.00000 0.00000 -200.70 7.59351 -200.00 -305.00 50.0000 -140.00 
JTENTA24 JTENTA24     0 2 236.00 0.00000 0.00000 -200.70 7.59351 -200.00 -305.00 50.0000 -140.00 
JTENTA5  JTENTA5      0 0        0.11580 0.03160 0.00000 0.00000 
JTENTB11 JTENTB11     0 2 412.30 0.00000 0.00000 -481.69 161.349 -480.00 -620.00 150.000 -250.00 
JTENTB12 JTENTB12     0 2 412.29 0.00000 0.00000 -471.66 161.929 -470.00 -620.00 150.000 -250.00 
JTENTB2  JTENTB2      0 0        0.00000 0.00000 0.00000 0.00000 
JTKOLU51 JTKOLU51     0 2 112.84 0.00000 0.00000 0.00000 0.46746 0.00000 -29.000 0.00000 -20.000 
JTKOLU52 JTKOLU52     0 2 112.84 0.00000 0.00000 0.00000 0.46746 0.00000 -29.000 0.00000 -20.000 
JTKOLU53 JTKOLU53     0 2 112.84 0.00000 0.00000 0.00000 0.46746 0.00000 -58.000 0.00000 -20.000 
JTKOLU54 JTKOLU54     0 2 112.84 0.00000 0.00000 0.00000 0.46746 0.00000 -20.000 0.00000 -20.000 
JTKOLU55 JTKOLU55     0 2 112.84 0.00000 0.00000 0.00000 0.46746 0.00000 -108.00 0.00000 -30.000 
JTKSTA51 JTKSTA51     0 2 117.90 0.00000 0.00000 -79.901 -41.957 -45.000 -93.000 0.00000 -40.000 
JTKSTA52 JTKSTA52     0 2 118.07 0.00000 0.00000 -140.49 -62.082 -140.00 -198.00 0.00000 -60.000 
JTMORA5  JTMORA5      0 2 116.00 10.8530 3.29721 0.00000 -19.614 0.00000 -110.00 0.00000 -30.000 
JTOPOL5  JTOPOL5      0 0        10.5372 6.18359 0.00000 0.00000 
JTRSTE5  JTRSTE5      0 0        15.3583 5.40406 0.00000 0.00000 
JTTBGD51 JTTBGD51     0 0        46.5490 1.03235 0.00000 0.00000 
JTTBGD52 JTTBGD52     0 0        0.00000 0.00000 0.00000 0.00000 
JTTNSA51 JTTNSA51     0 2 116.00 0.00000 0.00000 0.00000 4.31370 0.00000 -110.00 0.00000 -60.000 
JTTNSA52 JTTNSA52     0 2 116.00 0.00000 0.00000 0.00000 4.31370 0.00000 -110.00 0.00000 -60.000 
JTTPAN21 JTTPAN21     0 2 235.00 0.00000 0.00000 -49.439 -4.4455 0.00000 -64.000 0.00000 -48.000 
JTTPAN22 JTTPAN22     0 2 235.00 0.00000 0.00000 -49.439 -4.4455 0.00000 -64.000 0.00000 -48.000 
JTTPAN23 JTTPAN23     0 2 235.00 0.00000 0.00000 -65.919 -1.5125 0.00000 -72.000 0.00000 -48.000 
JTTVIN51 JTTVIN51     0 2 115.31 0.00000 0.00000 0.00000 40.6212 0.00000 0.00000 40.5000 0.00000 
JTTZRE51 JTTZRE5      0 2 113.25 0.22106 0.36870 0.00000 0.17144 0.00000 -80.000 0.00000 -30.000 
JTTZRE52 JTTZRE52     0 0        0.00000 0.00000 0.00000 0.00000 
JTUTIN5  JTUTIN5      0 0        5.05281 1.83296 0.00000 0.00000 
JUB   5  JUB   5      0 0        12.2951 4.24529 0.00000 0.00000 
JUZICE51 JUZICE51     0 0        22.8534 7.51090 0.00000 0.00000 
JVALJ151 JVALJ151     0 0        30.7062 9.62828 0.00000 0.00000 
JVALJ152 JVALJ152     0 0        0.00000 0.00000 0.00000 0.00000 
JVALJ25  JVALJ25      0 0        20.9585 6.27840 0.00000 0.00000 
JVALJ321 JVALJ321     0 0        0.00000 0.00000 0.00000 0.00000 
JVALJ322 JVALJ322     0 0        0.00000 0.00000 0.00000 0.00000 
JVALJ351 JVALJ351     0 0        0.00000 0.00000 0.00000 0.00000 
JVALJ352 JVALJ352     0 0        0.00000 0.00000 0.00000 0.00000 
JVBANJ5  JVBANJ5      0 0        13.4425 3.05493 0.00000 0.00000 
JVHAN 51 JVHAN 51     0 0        5.86336 3.41309 0.00000 0.00000 
JVLADI5  JVLADI5      0 0        10.3056 3.82392 0.00000 0.00000 
JVLASO5  JVLASO5      0 0        3.74749 0.00000 0.00000 0.00000 
JVPLAN5  JVPLAN5      0 0        16.5690 1.91723 0.00000 0.00000 
JVRAN151 JVRAN151     0 0        0.00000 0.00000 0.00000 0.00000 
JVRAN152 JVRAN152     0 0        0.00000 0.00000 0.00000 0.00000 
JVRAN25  JVRAN25      0 0        11.9688 2.01204 0.00000 0.00000 
JVRAN411 JVRAN411     0 0        0.00000 0.00000 0.00000 0.00000 
JVRAN451 JVRAN451     0 0        0.00000 0.00000 0.00000 0.00000 
JVRAN452 JVRAN452     0 0        0.00000 0.00000 0.00000 0.00000 
JVRBA15  JVRBA15      0 0        18.3585 7.05793 0.00000 0.00000 
JVRBA25  JVRBA25      0 0        10.2108 0.15801 0.00000 0.00000 
JVRSA15  JVRSA15      0 0        15.9163 3.63431 0.00000 0.00000 
JVRSA25  JVRSA25      0 0        14.5162 0.90594 0.00000 0.00000 
JWALIB51 JWALIB51     0 2 114.50 0.00000 0.00000 0.00000 16.9011 0.00000 -42.000 16.8000 -18.900 
JWALIB52 JWALIB52     0 0        0.00000 0.00000 0.00000 0.00000 
JWCIBU11 JWCIBU11     0 2 414.72 0.00000 0.00000 -1.4980 -40.347 0.00000 -79.500 38.2900 -38.290 
JWCIBU12 JWCIBU12     0 2 414.72 0.00000 0.00000 -1.4980 -40.347 0.00000 -79.500 38.2900 -38.290 
JWKOSA51 JWKOSA51     0 2 114.00 0.00000 0.00000 0.00000 7.35169 0.00000 -34.500 12.0000 -16.490 
JWKOSA52 JWKOSA52     0 2 114.00 0.00000 0.00000 0.00000 7.35169 0.00000 -34.500 12.0000 -16.490 
JWKOVA21 JWKOVA21     0 2 231.00 0.00000 0.00000 -0.4993 25.0429 0.00000 -53.000 25.5200 -25.520 
JWKOVA22 JWKOVA22     0 2 231.00 0.00000 0.00000 -0.4993 25.0429 0.00000 -53.000 25.5200 -25.520 
JZABAL5  JZABAL5      0 0        9.42137 3.30775 0.00000 0.00000 
JZAJE15  JZAJE15      0 0        10.0425 0.00000 0.00000 0.00000 
JZAJE251 JZAJE251     0 0        0.00000 0.00000 0.00000 0.00000 
JZAJE252 JZAJE252     0 0        30.5379 5.00376 0.00000 0.00000 
JZASTA5  JZASTA5      0 0        6.45285 3.45523 0.00000 0.00000 
JZLAT251 JZLAT25      0 0        7.38973 0.00000 0.00000 0.00000 
JZLAT252 JZLAT252     0 0        0.00000 0.00000 0.00000 0.00000 
JZREN15  JZREN15      0 0        21.4744 4.38224 0.00000 0.00000 
JZREN221 JZREN22      0 0        0.00000 0.00000 0.00000 0.00000 
JZREN222 JZREN222     0 0        0.00000 0.00000 0.00000 0.00000 
JZREN251 JZREN251     0 0        0.00000 0.00000 0.00000 0.00000 
JZREN252 JZREN252     0 0        0.00000 0.00000 0.00000 0.00000 
JZREN351 JZREN351     0 0        12.7161 4.70880 0.00000 0.00000 
JZREN352 JZREN352     0 0        12.6530 2.67569 0.00000 0.00000 
JZREN45  JZREN45      0 0        16.1479 3.98194 0.00000 0.00000 
##ZSI
LBERIC11 LBERIC11     0 0        21.2818 0.00000 0.00000 0.00000 
LBERIC12 LBERIC12     0 2 411.40 0.00000 0.00000 0.00000 -81.538 0.00000 0.00000 300.000 -300.00 
LBERIC21 LBERIC21     0 0        92.7643 2.00000 0.00000 0.00000 
LCIRKO11 LCIRKO11     0 0        -11.800 42.0000 0.00000 0.00000 
LCIRKO12 LCIRKO12     0 0        0.00000 0.00000 0.00000 0.00000 
LDIVAC11 LDIVAC11     0 0        111.809 1.00000 0.00000 0.00000 
LDIVAC12 LDIVAC12     0 0        0.00000 0.00000 0.00000 0.00000 
LDIVAC21 LDIVAC21     0 0        27.6346 0.00000 0.00000 0.00000 
LDIVAC22 LDIVAC22     0 0        0.00000 0.00000 0.00000 0.00000 
LDIVAC51 LDIVAC51     0 0        166.535 37.0000 0.00000 0.00000 
LKLECE21 LKLECE21     0 0        93.3996 90.0000 0.00000 0.00000 
LKRSKO11 LKRSKO11     0 2 414.50 195.138 -8.0000 -665.22 61.1865 0.00000 -705.00 300.000 -300.00 
LKRSKO12 LKRSKO12     0 0        0.00000 0.00000 0.00000 0.00000 
LMARIB11 LMARIB11     0 0        75.7000 77.0000 0.00000 0.00000 
LMARIB12 LMARIB12     0 0        0.00000 0.00000 0.00000 0.00000 
LOKROG11 LOKROG11     0 0        182.375 -24.000 0.00000 0.00000 
LPODLO11 LPODLOG11    0 0        37.8000 15.0000 0.00000 0.00000 
LPODLO21 LPODLOG21    0 0        178.500 16.0000 0.00000 -2.0000 0.00000 -315.00 25.0000 -200.00 
LPODLO22 LPODLOG22    0 0        0.00000 0.00000 0.00000 0.00000 
LSOSTA11 LSOSTA11     0 0        0.00000 0.00000 0.00000 0.00000 
LSOSTA16 LSOSTA16     0 2 411.80 0.00000 0.00000 -420.65 38.4066 0.00000 -553.00 400.000 -300.00 
##ZRO
RABAT_5  RABAT_5      0 0        2.22381 0.83381 0.00000 0.00000 
RADJU_5  RADJU_5      0 0        11.3967 2.78001 0.00000 0.00000 
RAERO15  RAERO15      0 0        0.00000 0.00000 0.00000 0.00000 
RAERO25  RAERO25      0 0        0.00000 0.00000 0.00000 0.00000 
RAFUM_5  RAFUM_5      0 0        18.1603 1.23275 0.00000 0.00000 
RAGHIR5  RAGHIR5      0 0        4.70388 2.11218 0.00000 0.00000 
RAIUD_5  RAIUD_5      0 0        9.91348 1.38903 0.00000 0.00000 
RAIUL15  RAIUL15      0 0        5.55904 0.83381 0.00000 0.00000 
RAIUL22  RAIUL22      0 0        0.00000 0.00000 0.00000 0.00000 
RAIUL25  RAIUL25      0 0        0.00000 0.00000 0.00000 0.00000 
RALBE_5  RALBE_5      0 2 118.08 0.14560 0.12813 -4.9939 14.3034 0.00000 -30.000 14.0000 -26.000 
RALES_5  RALES_5      0 0        27.1478 7.87604 0.00000 0.00000 0.00000 -52.000 39.0000 -39.000 
RALEX15  RALEX15      0 2 117.99 2.59946 0.09416 -4.9939 0.91339 0.00000 -9.0000 5.00000 -5.0000 
RALEX25  RALEX25      0 0        0.00000 0.00000 0.00000 0.00000 
RALMA_5  RALMA_5      0 2 118.07 4.54275 1.11336 -2.9962 3.00451 0.00000 -5.0000 3.00000 -3.0000 
RALVE_5  RALVE_5      0 0        11.3035 2.40921 0.00000 0.00000 
RAMAR_5  RAMAR_5      0 0        3.61284 1.48319 0.00000 0.00000 
RANIN_5  RANIN_5      0 0        0.00000 0.00000 0.00000 0.00000 
RARA1D5  RARA1D5      0 0        0.00000 0.00000 0.00000 0.00000 
RARA2D5  RARA2D5      0 0        9.82126 1.39000 0.00000 0.00000 
RARA4D1  RARA4D1      0 0        0.00000 0.00000 0.00000 0.00000 
RARAD22  RARAD22      0 0        0.00000 0.00000 0.00000 0.00000 
RARAD41  RARAD41      0 0        0.00000 0.00000 0.00000 0.00000 
RARBTF5  RARBTF5      0 0        0.00000 0.00000 0.00000 0.00000 
RARCU_5  RARCU_5      0 2 117.64 20.6190 3.87492 -3.9950 -3.9921 0.00000 -7.0000 4.00000 -4.0000 
RAREF22  RAREF22      0 0        0.00000 0.00000 0.00000 0.00000 
RAREF_5  RAREF_5      0 2 118.86 2.32088 0.45622 -1.9975 2.54700 0.00000 -10.000 3.00000 -3.0000 
RARF222  RARF222      0 0        0.00000 0.00000 0.00000 0.00000 
RARGS_5  RARGS_5      0 2 117.99 3.43230 0.36303 -4.9939 4.75516 0.00000 -31.000 30.0000 -30.000 
RARMEN5  RARMEN5      0 0        0.00000 0.00000 0.00000 0.00000 0.00000 -39.000 20.0000 -20.000 
RARMT_5  RARMT_5      0 0        0.00000 0.00000 0.00000 0.00000 
RAVLA_5  RAVLA_5      0 0        7.22666 1.11239 0.00000 0.00000 
RBABAD5  RBABAD5      0 2 117.99 1.85301 0.92699 -9.9878 4.18727 0.00000 -77.000 15.0000 -15.000 
RBABAN5  RBABAN5      0 0        12.0451 1.85301 0.00000 0.00000 
RBACI_5  RBACI_5      0 0        6.85586 0.27761 0.00000 0.00000 
RBACS41  RBACS41      0 0        0.00000 0.00000 0.00000 0.00000 
RBACS_5  RBACS_5      0 2 117.99 29.7443 7.33440 -6.9914 -15.105 0.00000 -98.000 29.0000 -34.000 
RBAIA_5  RBAIA_5      0 2 117.99 2.78001 0.92699 -3.9950 -0.0217 0.00000 -17.000 5.00000 -10.000 
RBAIC_5  RBAIC_5      0 0        7.22666 1.66762 0.00000 0.00000 
RBAIL_5  RBAIL_5      0 2 117.99 5.38044 1.20752 -6.9914 1.25460 0.00000 -7.0000 8.00000 -8.0000 
RBAITA5  RBAITA5      0 0        1.20460 0.27761 0.00000 0.00000 
RBALBA5  RBALBA5      0 0        13.6661 0.64841 0.00000 0.00000 
RBALS_5  RBALS_5      0 2 117.99 9.36505 1.67053 -7.9901 -0.6924 0.00000 -16.000 8.00000 -8.0000 
RBALTG5  RBALTG5      0 2 117.99 0.00000 0.00000 -17.977 -9.7116 0.00000 -123.00 60.0000 -60.000 
RBALT_5  RBALT_5      0 0        3.05762 0.92699 0.00000 0.00000 
RBAM122  RBAM122      0 0        0.00000 0.00000 0.00000 0.00000 
RBAM2_5  RBAM2_5      0 2 118.76 9.45047 1.66859 -2.9962 -3.6393 0.00000 -6.0000 2.00000 -2.0000 
RBAM4_5  RBAM4_5      0 0        16.6771 1.76080 0.00000 0.00000 
RBAM5_5  RBAM5_5      0 0        14.7319 0.09221 0.00000 0.00000 
RBAMA15  RBAMA15      0 0        0.74159 0.37080 0.00000 0.00000 
RBAMA22  RBAMA22      0 0        0.00000 0.00000 0.00000 0.00000 
RBAMA25  RBAMA25      0 0        3.24205 0.27761 0.00000 0.00000 
RBANE15  RBANE15      0 0        20.4026 4.42918 0.00000 0.00000 
RBANE25  RBANE25      0 0        22.5147 1.66762 0.00000 0.00000 
RBANO15  RBANO15      0 0        1.39000 0.55619 0.00000 0.00000 
RBANO25  RBANO25      0 0        2.64023 0.46301 0.00000 0.00000 
RBAR122  RBAR122      0 0        0.00000 0.00000 0.00000 0.00000 
RBARB22  RBARB22      0 0        0.00000 0.00000 0.00000 0.00000 
RBARB25  RBARB25      0 0        0.00000 0.00000 0.00000 0.00000 0.00000 -105.00 43.0000 -80.000 
RBARB_5  RBARB_5      0 0        85.0000 15.0000 0.00000 0.00000 0.00000 -105.00 88.0000 -88.000 
RBARJ15  RBARJ15      0 0        0.00000 0.00000 0.00000 0.00000 
RBARJ25  RBARJ25      0 0        0.00000 0.00000 0.00000 0.00000 
RBARN_5  RBARN_5      0 0        0.92699 0.46301 0.00000 0.00000 
RBART_5  RBART_5      0 2 117.91 16.1209 7.04126 -10.985 -13.047 0.00000 -17.000 13.0000 -13.000 
RBARU22  RBARU22      0 0        0.00000 0.00000 0.00000 0.00000 
RBARUM5  RBARUM5      0 0        1.11142 0.27761 0.00000 0.00000 
RBASA15  RBASA15      0 2 117.99 12.0451 4.63302 -15.980 -6.3463 0.00000 -112.00 40.0000 -40.000 
RBASA25  RBASA25      0 0        0.00000 0.00000 0.00000 0.00000 
RBASB15  RBASB15      0 0        0.00000 0.00000 0.00000 0.00000 
RBASB25  RBASB25      0 0        3.98364 0.83381 0.00000 0.00000 
RBECH_5  RBECH_5      0 0        3.61381 1.39000 0.00000 0.00000 
RBECL_5  RBECL_5      0 0        9.26507 0.64841 0.00000 0.00000 
RBEIU_5  RBEIU_5      0 0        9.07967 2.78001 0.00000 0.00000 
RBERB_5  RBERB_5      0 0        14.8241 5.00382 0.00000 0.00000 
RBERC_5  RBERC_5      0 2 117.99 7.42176 2.50725 -19.975 -4.9069 0.00000 -33.000 19.0000 -20.000 
RBIRL25  RBIRL25      0 2 117.99 0.00000 0.00000 -5.9926 -8.7384 0.00000 -12.000 9.00000 -9.0000 
RBIRL_5  RBIRL_5      0 0        23.5340 4.00208 0.00000 0.00000 
RBIRS25  RBIRS25      0 2 117.94 7.69258 1.02018 -1.9975 -1.8581 0.00000 -13.000 2.00000 -2.0000 
RBOLO_5  RBOLO_5      0 0        1.59384 1.16772 0.00000 0.00000 
RBORD_5  RBORD_5      0 0        1.85301 0.92699 0.00000 0.00000 
RBORS_5  RBORS_5      0 0        0.64841 0.18540 0.00000 0.00000 
RBORZ_5  RBORZ_5      0 2 117.99 15.3090 6.80400 -8.9889 -6.9284 0.00000 -32.000 24.0000 -24.000 
RBOTO_5  RBOTO_5      0 2 117.99 12.3877 1.70450 -7.9901 -8.1384 0.00000 -13.000 10.0000 -10.000 
RBRAB_5  RBRAB_5      0 0        20.4763 1.01921 0.00000 0.00000 
RBRAD15  RBRAD15      0 2 116.92 16.3520 4.73700 -1.9975 -7.3204 0.00000 -5.0000 3.00000 -3.0000 
RBRAD25  RBRAD25      0 0        0.00000 0.00000 0.00000 0.00000 
RBRAD41  RBRAD41      0 0        0.20575 105.989 0.00000 0.00000 
RBRAI22  RBRAI22      0 0        0.00000 0.00000 0.00000 0.00000 
RBRAI41  RBRAI41      0 0        0.00000 0.00000 0.00000 0.00000 
RBRAS25  RBRAS25      0 0        13.8049 2.59461 0.00000 0.00000 
RBRAS41  RBRAS41      0 0        0.00000 0.00000 0.00000 0.00000 
RBRASA5  RBRASA5      0 0        0.00000 0.00000 0.00000 0.00000 
RBRASB5  RBRASB5      0 0        3.05762 0.55619 0.00000 0.00000 
RBRAZ12  RBRAZ12      0 0        0.00000 0.00000 0.00000 0.00000 0.00000 -1.0000 10.0000 -10.000 
RBRAZ22  RBRAZ22      0 0        0.00000 0.00000 0.00000 0.00000 0.00000 -263.00 73.0000 -100.00 
RBRAZ41  RBRAZ41      0 0        12.9600 8.03200 0.00000 0.00000 0.00000 -295.00 50.0000 -100.00 
RBRAZA5  RBRAZA5      0 0        0.00000 0.00000 0.00000 0.00000 
RBRAZB5  RBRAZB5      0 0        0.00000 0.00000 0.00000 0.00000 
RBRD241  RBRD241      0 0        0.00000 0.00000 0.00000 0.00000 
RBRDN12  RBRDN12      0 0        0.00000 0.00000 0.00000 0.00000 
RBRDN22  RBRDN22      0 0        0.00000 0.00000 0.00000 0.00000 
RBRDS15  RBRDS15      0 0        0.00000 0.00000 0.00000 0.00000 
RBRDS25  RBRDS25      0 2 117.99 0.48534 0.42807 -3.9950 -20.662 0.00000 -118.00 21.0000 -21.000 
RBRDT_5  RBRDT_5      0 0        6.85586 1.11142 0.00000 0.00000 
RBRGN_5  RBRGN_5      0 2 118.40 4.63496 1.94717 -3.9950 4.29827 0.00000 -9.0000 4.00000 -4.0000 
RBRLS_5  RBRLS_5      0 0        9.26507 1.39000 0.00000 0.00000 
RBRLT15  RBRLT15      0 0        12.3227 3.79921 0.00000 0.00000 
RBRLT25  RBRLT25      0 0        8.52445 0.46301 0.00000 0.00000 
RBRS241  RBRS241      0 0        0.00000 0.00000 0.00000 0.00000 
RBRTM_5  RBRTM_5      0 0        6.30064 1.11142 0.00000 0.00000 0.00000 -3.0000 2.00000 -2.0000 
RBRZ241  RBRZ241      0 0        6.24000 3.86700 0.00000 0.00000 0.00000 -313.00 50.0000 -100.00 
RBRZA_5  RBRZA_5      0 0        11.3035 2.78001 0.00000 0.00000 
RBSTC_5  RBSTC_5      0 2 117.99 19.6435 1.85301 -0.9987 -19.906 0.00000 -28.000 20.0000 -20.000 
RBTSR_5  RBTSR_5      0 0        8.89427 3.61284 0.00000 0.00000 
RBUC-15  RBUC-15      0 0        46.9941 2.90037 0.00000 0.00000 
RBUC-25  RBUC-25      0 0        12.8604 1.74236 0.00000 0.00000 
RBUC-A5  RBUC-A5      0 0        15.5191 0.00000 0.00000 0.00000 
RBUC-B5  RBUC-B5      0 0        0.00000 0.00000 0.00000 0.00000 
RBUC122  RBUC122      0 0        0.00000 0.00000 0.00000 0.00000 
RBUC141  RBUC141      0 0        0.00000 0.00000 0.00000 0.00000 
RBUC241  RBUC241      0 0        0.19801 107.932 0.00000 0.00000 
RBUCE_5  RBUCE_5      0 0        3.67788 0.94544 0.00000 0.00000 0.00000 -1.0000 1.00000 -1.0000 
RBUCOV5  RBUCOV5      0 0        19.7347 7.78285 0.00000 0.00000 
RBUCU15  RBUCU15      0 0        0.00000 0.00000 0.00000 0.00000 0.00000 -100.00 65.0000 -70.000 
RBUCU22  RBUCU22      0 0        0.00000 0.00000 0.00000 0.00000 
RBUCU25  RBUCU25      0 2 117.32 28.8969 9.53589 -58.927 -91.337 0.00000 -100.00 90.0000 -90.000 
RBUHU_5  RBUHU_5      0 0        5.12806 1.28032 0.00000 0.00000 0.00000 -11.000 7.00000 -7.0000 
RBUJO15  RBUJO15      0 0        0.00000 0.00000 0.00000 0.00000 0.00000 -149.00 20.0000 -100.00 
RBUJO25  RBUJO25      0 0        0.00000 0.00000 0.00000 0.00000 0.00000 -60.000 60.0000 -150.00 
RBUNE_5  RBUNE_5      0 0        1.57540 0.46301 0.00000 0.00000 
RBURI_5  RBURI_5      0 2 117.99 1.97047 1.07648 -48.939 17.9063 0.00000 -61.000 20.0000 -25.000 
RBUZE_5  RBUZE_5      0 0        10.7483 2.40921 0.00000 0.00000 
RBUZN_5  RBUZN_5      0 0        13.9913 6.48603 0.00000 0.00000 
RBUZS_5  RBUZS_5      0 2 117.49 26.7799 6.11621 -2.9962 -16.965 0.00000 -17.000 19.0000 -19.000 
RCACIU5  RCACIU5      0 0        12.2305 3.61381 0.00000 0.00000 
RCALAC5  RCALAC5      0 0        1.39000 0.55619 0.00000 0.00000 
RCALA_5  RCALA_5      0 2 116.01 13.8981 2.78001 -4.9939 -3.6682 0.00000 -5.0000 4.00000 -4.0000 
RCALF22  RCALF22      0 0        0.00000 0.00000 0.00000 0.00000 
RCALF25  RCALF25      0 0        0.00000 0.00000 0.00000 0.00000 
RCALF_5  RCALF_5      0 0        3.52063 0.37080 0.00000 0.00000 
RCALN_5  RCALN_5      0 0        6.67143 1.94620 0.00000 0.00000 
RCALR_5  RCALR_5      0 0        0.00000 0.00000 0.00000 0.00000 
RCAPRI5  RCAPRI5      0 0        1.76080 0.00000 0.00000 0.00000 
RCARA22  RCARA22      0 0        0.00000 0.00000 0.00000 0.00000 
RCARB_5  RCARB_5      0 2 117.99 2.51113 0.28247 -3.9950 -2.5811 0.00000 -20.000 6.00000 -10.000 
RCARD15  RCARD15      0 0        15.9375 5.09506 0.00000 0.00000 0.00000 -60.000 27.0000 -27.000 
RCARD25  RCARD25      0 0        0.00000 0.00000 0.00000 0.00000 0.00000 -22.000 16.0000 -16.000 
RCARE_5  RCARE_5      0 2 115.96 30.5791 0.83478 -2.9962 -5.0473 0.00000 -3.0000 3.00000 -3.0000 
RCARN_5  RCARN_5      0 0        0.00000 0.00000 0.00000 0.00000 
RCARS_5  RCARS_5      0 2 117.99 6.76656 0.37177 -2.9962 -1.4386 0.00000 -6.0000 3.00000 -3.0000 
RCARVF5  RCARVF5      0 0        0.00000 0.00000 0.00000 0.00000 
RCARV_5  RCARV_5      0 2 117.99 4.17195 1.11239 -2.9962 0.16023 0.00000 -5.0000 3.00000 -3.0000 
RCAVN_5  RCAVN_5      0 0        0.00000 0.00000 0.00000 0.00000 
RCAZA_5  RCAZA_5      0 0        5.55904 2.78001 0.00000 0.00000 
RCAZN_5  RCAZN_5      0 0        8.70984 2.87222 0.00000 0.00000 
RCEBV_5  RCEBV_5      0 2 117.99 0.00000 0.00000 -1.9975 -14.739 0.00000 -20.000 15.0000 -15.000 
RCELU_5  RCELU_5      0 0        0.00000 0.00000 0.00000 0.00000 
RCENT_5  RCENT_5      0 0        25.1191 1.87243 0.00000 0.00000 
RCERB_5  RCERB_5      0 2 118.00 0.00000 0.00000 -1.9975 5.83748 0.00000 -15.000 6.00000 -20.000 
RCERN15  RCERN15      0 0        0.00000 0.00000 0.00000 0.00000 
RCERN25  RCERN25      0 0        0.00000 0.00000 0.00000 0.00000 
RCERN41  RCERN41      0 2 412.00 106.572 310.311 -1387.2 -1.1954 0.00000 -1421.0 150.000 -150.00 
RCETA15  RCETA15      0 2 117.10 3.24593 0.46398 -2.9962 -1.4271 0.00000 -6.0000 3.00000 -3.0000 
RCETA22  RCETA22      0 0        0.00000 0.00000 0.00000 0.00000 
RCETA25  RCETA25      0 0        0.00000 0.00000 0.00000 0.00000 
RCETA_5  RCETA_5      0 0        15.7511 0.00000 0.00000 0.00000 
RCETB22  RCETB22      0 0        0.00000 0.00000 0.00000 0.00000 
RCETB25  RCETB25      0 2 117.82 0.00000 0.00000 -0.9987 -10.706 0.00000 -16.000 10.0000 -10.000 
RCETBA5  RCETBA5      0 2 117.99 0.77654 0.68529 -52.934 -2.5291 0.00000 -84.000 64.0000 -64.000 
RCETBB5  RCETBB5      0 0        0.00000 0.00000 0.00000 0.00000 0.00000 -105.00 67.0000 -80.000 
RCETG_5  RCETG_5      0 0        5.48527 0.12036 0.00000 0.00000 0.00000 -18.000 13.0000 -53.000 
RCFCA_5  RCFCA_5      0 0        1.48222 0.00000 0.00000 0.00000 
RCFDE_5  RCFDE_5      0 0        6.76365 2.50142 0.00000 0.00000 
RCFPUI5  RCFPUI5      0 0        1.20460 0.37080 0.00000 0.00000 
RCHDO_5  RCHDO_5      0 2 117.99 0.30091 0.26596 -14.980 4.32524 0.00000 -53.000 16.0000 -16.000 
RCHEAC5  RCHEAC5      0 2 117.99 0.18443 0.16307 -10.985 -5.9149 0.00000 -38.000 14.0000 -14.000 
RCHEIO5  RCHEIO5      0 2 117.99 0.21355 0.18831 -14.980 -1.1435 0.00000 -53.000 10.0000 -12.000 
RCHESJ5  RCHESJ5      0 2 117.99 0.24267 0.17569 -13.982 0.82128 0.00000 -50.000 10.0000 -15.000 
RCHEST5  RCHEST5      0 2 117.99 0.23296 0.20578 -6.9914 -4.4938 0.00000 -26.000 22.0000 -22.000 
RCHIT15  RCHIT15      0 0        30.7606 2.68682 0.00000 0.00000 
RCHIT25  RCHIT25      0 0        7.22666 0.00000 0.00000 0.00000 
RCHTU_5  RCHTU_5      0 2 117.99 2.41795 0.44845 -22.970 6.84836 0.00000 -74.000 12.0000 -12.000 
RCICE_5  RCICE_5      0 0        10.0998 1.94620 0.00000 0.00000 
RCICH_5  RCICH_5      0 0        9.20000 1.20000 0.00000 0.00000 0.00000 -17.000 12.0000 -12.000 
RCICR_5  RCICR_5      0 0        13.8971 2.13160 0.00000 0.00000 
RCILC15  RCILC15      0 0        0.00000 0.00000 0.00000 0.00000 
RCILC_5  RCILC_5      0 0        9.17189 3.70603 0.00000 0.00000 
RCIMP_5  RCIMP_5      0 0        16.3073 1.29682 0.00000 0.00000 0.00000 -14.000 10.0000 -10.000 
RCIMS_5  RCIMS_5      0 0        3.98461 2.13063 0.00000 0.00000 
RCIRI_5  RCIRI_5      0 0        3.72447 0.42612 0.00000 0.00000 
RCIRNA5  RCIRNA5      0 2 118.27 0.19414 0.14366 -2.9962 7.83625 0.00000 -29.000 8.00000 -8.0000 
RCIRNB5  RCIRNB5      0 2 117.99 0.14560 0.10774 -2.9962 -4.7769 0.00000 -27.000 8.00000 -8.0000 
RCIRT_5  RCIRT_5      0 2 117.99 7.98669 0.44845 -20.973 5.24219 0.00000 -54.000 15.0000 -15.000 
RCISN_5  RCISN_5      0 2 117.89 6.81897 0.00000 -4.9939 -6.2061 0.00000 -27.000 4.00000 -4.0000 
RCIUD15  RCIUD15      0 0        0.00000 0.00000 0.00000 0.00000 
RCIZBI5  RCIZBI5      0 2 117.99 0.35915 0.31741 -14.980 4.93480 0.00000 -53.000 12.0000 -12.000 
RCJF222  RCJF222      0 0        0.00000 0.00000 0.00000 0.00000 
RCJFL15  RCJFL15      0 2 118.22 27.6108 4.63205 -16.978 14.2624 0.00000 -21.000 16.0000 -16.000 
RCJFL22  RCJFL22      0 0        0.00000 0.00000 0.00000 0.00000 
RCJFL25  RCJFL25      0 0        2.59461 0.00000 0.00000 0.00000 
RCJNO_5  RCJNO_5      0 0        8.33905 0.83381 0.00000 0.00000 
RCJSD_5  RCJSD_5      0 0        12.9711 0.27761 0.00000 0.00000 
RCLE2_5  RCLE2_5      0 0        0.00000 0.00000 0.00000 0.00000 
RCLEJ_5  RCLEJ_5      0 0        3.52063 0.86196 0.00000 0.00000 
RCLEST1  RCLEST1      0 0        0.00000 0.00000 0.00000 0.00000 
RCLES_5  RCLES_5      0 2 118.15 33.8182 8.43029 -4.9939 -1.5404 0.00000 -10.000 3.00000 -3.0000 
RCLNG_5  RCLNG_5      0 2 117.99 31.9914 12.0965 -12.983 -30.840 0.00000 -90.000 34.0000 -34.000 
RCMPE_5  RCMPE_5      0 0        17.3265 2.78001 0.00000 0.00000 
RCNIS_5  RCNIS_5      0 0        10.3765 1.57443 0.00000 0.00000 
RCODL_5  RCODL_5      0 2 117.99 9.72905 0.83381 -2.9962 -0.9624 0.00000 -3.0000 2.00000 -2.0000 
RCOLB_5  RCOLB_5      0 0        0.00000 0.00000 0.00000 0.00000 
RCOLD_5  RCOLD_5      0 0        0.27761 0.00000 0.00000 0.00000 
RCOMA_5  RCOMA_5      0 2 117.91 12.0451 2.96540 -3.9950 -2.9643 0.00000 -4.0000 3.00000 -3.0000 
RCON1S1  RCON1S1      0 0        0.00000 0.00000 0.00000 0.00000 
RCON2S1  RCON2S1      0 0        0.00000 0.00000 0.00000 0.00000 
RCONS15  RCONS15      0 0        36.1343 6.48603 0.00000 0.00000 
RCONS25  RCONS25      0 0        4.63302 0.92699 0.00000 0.00000 
RCONT_5  RCONT_5      0 0        1.00076 0.28732 0.00000 0.00000 
RCONX_5  RCONX_5      0 0        2.13063 0.69500 0.00000 0.00000 
RCOPA_5  RCOPA_5      0 0        0.00000 0.00000 0.00000 0.00000 
RCOPS_5  RCOPS_5      0 0        5.09603 0.55619 0.00000 0.00000 
RCORA15  RCORA15      0 2 118.02 4.73203 1.02212 -6.9914 3.28381 0.00000 -14.000 3.00000 -7.0000 
RCORA25  RCORA25      0 0        0.00000 0.00000 0.00000 0.00000 
RCOST_5  RCOST_5      0 0        0.20384 0.17957 0.00000 0.00000 0.00000 -24.000 20.0000 -20.000 
RCOTRA5  RCOTRA5      0 0        13.6205 1.01921 0.00000 0.00000 
RCOTRB5  RCOTRB5      0 0        11.6743 0.83381 0.00000 0.00000 
RCOZL_5  RCOZL_5      0 0        0.83381 0.00000 0.00000 0.00000 
RCPAL25  RCPAL25      0 0        53.7384 10.1921 0.00000 0.00000 0.00000 -2.0000 5.00000 -5.0000 
RCPAL45  RCPAL45      0 0        0.00000 0.00000 0.00000 0.00000 
RCPLG_5  RCPLG_5      0 0        6.02302 0.74062 0.00000 0.00000 
RCPRGA5  RCPRGA5      0 0        0.00000 0.00000 0.00000 0.00000 0.00000 -1.0000 17.0000 -17.000 
RCPRGB5  RCPRGB5      0 0        0.00000 0.00000 0.00000 0.00000 0.00000 -100.00 80.0000 -80.000 
RCRA212  RCRA212      0 0        0.00000 0.00000 0.00000 0.00000 
RCRA222  RCRA222      0 0        0.00000 0.00000 0.00000 0.00000 
RCRAE_5  RCRAE_5      0 0        27.3322 6.57825 0.00000 0.00000 
RCRAI15  RCRAI15      0 0        0.00000 0.00000 0.00000 0.00000 
RCRAI25  RCRAI25      0 0        0.00000 0.00000 0.00000 0.00000 
RCRAS_5  RCRAS_5      0 0        21.4955 3.79921 0.00000 0.00000 
RCRCEN5  RCRCEN5      0 0        0.00000 0.00000 0.00000 0.00000 
RCRIG_5  RCRIG_5      0 0        4.44762 1.20460 0.00000 0.00000 
RCRIN15  RCRIN15      0 2 117.99 18.3642 0.92699 -5.9926 -0.7295 0.00000 -10.000 8.00000 -8.0000 
RCRIN25  RCRIN25      0 0        0.00000 0.00000 0.00000 0.00000 
RCRISC5  RCRISC5      0 0        1.11142 0.18540 0.00000 0.00000 
RCRIST5  RCRIST5      0 0        22.7924 7.78285 0.00000 0.00000 
RCRUS_5  RCRUS_5      0 0        3.05762 0.00000 0.00000 0.00000 
RCSTI_5  RCSTI_5      0 2 117.99 8.33905 2.31700 -2.9962 -12.213 0.00000 -20.000 21.0000 -21.000 
RCTACN5  RCTACN5      0 0        13.8981 1.85301 0.00000 0.00000 
RCTCVA5  RCTCVA5      0 2 117.99 12.2000 10.7590 -96.792 11.8265 0.00000 -140.00 20.0000 -80.000 
RCTCVB5  RCTCVB5      0 0        0.00000 0.00000 0.00000 0.00000 0.00000 -140.00 12.0000 -80.000 
RCTRZ22  RCTRZ22      0 0        0.00000 0.00000 0.00000 0.00000 
RCTRZ25  RCTRZ25      0 0        0.00000 0.00000 0.00000 0.00000 
RCTRZ_5  RCTRZ_5      0 2 118.64 12.3489 2.05103 -35.955 16.2202 0.00000 -47.000 18.0000 -18.000 
RCTSV_5  RCTSV_5      0 2 117.98 0.14560 0.12813 -6.9914 -10.689 0.00000 -30.000 10.0000 -10.000 
RCUDB_5  RCUDB_5      0 2 117.99 0.00000 0.00000 -11.985 4.58122 0.00000 -80.000 18.0000 -84.000 
RCUJM_5  RCUJM_5      0 2 117.99 2.69167 0.27955 -5.9926 2.69440 0.00000 -15.000 5.00000 -5.0000 
RCURTI5  RCURTI5      0 2 117.88 2.04035 0.37177 -1.9975 -1.5957 0.00000 -4.0000 2.00000 -2.0000 
RCUZV_5  RCUZV_5      0 2 118.98 6.49089 2.78195 -5.9926 2.88342 0.00000 -12.000 5.00000 -6.0000 
RCVTA_5  RCVTA_5      0 0        20.1987 2.59461 0.00000 0.00000 
RDABU_5  RDABU_5      0 2 117.99 1.85593 0.92796 -2.9962 -2.1177 0.00000 -7.0000 4.00000 -4.0000 
RDAIES5  RDAIES5      0 2 117.99 0.29120 0.25626 -23.970 7.34021 0.00000 -37.000 8.00000 -8.0000 
RDANE_5  RDANE_5      0 0        8.52445 1.01921 0.00000 0.00000 
RDEDA_5  RDEDA_5      0 0        8.06046 0.37080 0.00000 0.00000 
RDEJ__5  RDEJ__5      0 2 117.99 10.7521 2.04035 -4.9939 -1.3123 0.00000 -14.000 8.00000 -8.0000 
RDELE_5  RDELE_5      0 0        2.65867 0.43583 0.00000 0.00000 
RDEVA_5  RDEVA_5      0 0        6.76365 1.01921 0.00000 0.00000 
...